* NGSPICE file created from heichips25_fazyrv_exotiny.ext - technology: ihp-sg13g2

* Black-box entry subcircuit for sg13g2_mux2_1 abstract view
.subckt sg13g2_mux2_1 A0 A1 S X VDD VSS
.ends

* Black-box entry subcircuit for sg13g2_decap_8 abstract view
.subckt sg13g2_decap_8 VDD VSS
.ends

* Black-box entry subcircuit for sg13g2_nor3_1 abstract view
.subckt sg13g2_nor3_1 A B C Y VDD VSS
.ends

* Black-box entry subcircuit for sg13g2_fill_2 abstract view
.subckt sg13g2_fill_2 VDD VSS
.ends

* Black-box entry subcircuit for sg13g2_dfrbpq_2 abstract view
.subckt sg13g2_dfrbpq_2 RESET_B VSS VDD D Q CLK
.ends

* Black-box entry subcircuit for sg13g2_nand2_1 abstract view
.subckt sg13g2_nand2_1 Y A B VDD VSS
.ends

* Black-box entry subcircuit for sg13g2_dfrbpq_1 abstract view
.subckt sg13g2_dfrbpq_1 RESET_B VSS VDD D Q CLK
.ends

* Black-box entry subcircuit for sg13g2_nor2_1 abstract view
.subckt sg13g2_nor2_1 A B Y VDD VSS
.ends

* Black-box entry subcircuit for sg13g2_nor2b_1 abstract view
.subckt sg13g2_nor2b_1 A B_N Y VDD VSS
.ends

* Black-box entry subcircuit for sg13g2_a22oi_1 abstract view
.subckt sg13g2_a22oi_1 Y B1 B2 A2 A1 VDD VSS
.ends

* Black-box entry subcircuit for sg13g2_inv_1 abstract view
.subckt sg13g2_inv_1 VDD Y A VSS
.ends

* Black-box entry subcircuit for sg13g2_tiehi abstract view
.subckt sg13g2_tiehi VDD VSS L_HI
.ends

* Black-box entry subcircuit for sg13g2_nand2_2 abstract view
.subckt sg13g2_nand2_2 Y A B VDD VSS
.ends

* Black-box entry subcircuit for sg13g2_dlygate4sd3_1 abstract view
.subckt sg13g2_dlygate4sd3_1 A VDD VSS X
.ends

* Black-box entry subcircuit for sg13g2_fill_1 abstract view
.subckt sg13g2_fill_1 VDD VSS
.ends

* Black-box entry subcircuit for sg13g2_buf_8 abstract view
.subckt sg13g2_buf_8 A X VDD VSS
.ends

* Black-box entry subcircuit for sg13g2_o21ai_1 abstract view
.subckt sg13g2_o21ai_1 B1 VDD Y VSS A1 A2
.ends

* Black-box entry subcircuit for sg13g2_and2_1 abstract view
.subckt sg13g2_and2_1 A B X VDD VSS
.ends

* Black-box entry subcircuit for sg13g2_a21oi_1 abstract view
.subckt sg13g2_a21oi_1 VSS VDD A1 A2 Y B1
.ends

* Black-box entry subcircuit for sg13g2_mux4_1 abstract view
.subckt sg13g2_mux4_1 S0 A0 A1 A2 A3 S1 X VDD VSS
.ends

* Black-box entry subcircuit for sg13g2_nor2_2 abstract view
.subckt sg13g2_nor2_2 A B Y VDD VSS
.ends

* Black-box entry subcircuit for sg13g2_decap_4 abstract view
.subckt sg13g2_decap_4 VDD VSS
.ends

* Black-box entry subcircuit for sg13g2_xnor2_1 abstract view
.subckt sg13g2_xnor2_1 Y A B VDD VSS
.ends

* Black-box entry subcircuit for sg13g2_nor4_2 abstract view
.subckt sg13g2_nor4_2 A B C Y VSS VDD D
.ends

* Black-box entry subcircuit for sg13g2_a221oi_1 abstract view
.subckt sg13g2_a221oi_1 VDD VSS B2 C1 B1 A1 Y A2
.ends

* Black-box entry subcircuit for sg13g2_nand2b_1 abstract view
.subckt sg13g2_nand2b_1 Y B A_N VDD VSS
.ends

* Black-box entry subcircuit for sg13g2_buf_2 abstract view
.subckt sg13g2_buf_2 A X VDD VSS
.ends

* Black-box entry subcircuit for sg13g2_a21oi_2 abstract view
.subckt sg13g2_a21oi_2 VSS VDD B1 Y A2 A1
.ends

* Black-box entry subcircuit for sg13g2_buf_1 abstract view
.subckt sg13g2_buf_1 A X VDD VSS
.ends

* Black-box entry subcircuit for sg13g2_nand3_1 abstract view
.subckt sg13g2_nand3_1 B C A Y VDD VSS
.ends

* Black-box entry subcircuit for sg13g2_a21o_1 abstract view
.subckt sg13g2_a21o_1 A2 A1 B1 X VDD VSS
.ends

* Black-box entry subcircuit for sg13g2_nand4_1 abstract view
.subckt sg13g2_nand4_1 B C A Y VDD VSS D
.ends

* Black-box entry subcircuit for sg13g2_inv_4 abstract view
.subckt sg13g2_inv_4 A Y VDD VSS
.ends

* Black-box entry subcircuit for sg13g2_xor2_1 abstract view
.subckt sg13g2_xor2_1 B A X VDD VSS
.ends

* Black-box entry subcircuit for sg13g2_nor3_2 abstract view
.subckt sg13g2_nor3_2 A B C Y VDD VSS
.ends

* Black-box entry subcircuit for sg13g2_or4_1 abstract view
.subckt sg13g2_or4_1 A B C D X VDD VSS
.ends

* Black-box entry subcircuit for sg13g2_and3_2 abstract view
.subckt sg13g2_and3_2 X A B C VDD VSS
.ends

* Black-box entry subcircuit for sg13g2_and3_1 abstract view
.subckt sg13g2_and3_1 X A B C VDD VSS
.ends

* Black-box entry subcircuit for sg13g2_and4_1 abstract view
.subckt sg13g2_and4_1 A B C D X VDD VSS
.ends

* Black-box entry subcircuit for sg13g2_nor4_1 abstract view
.subckt sg13g2_nor4_1 A B C D Y VDD VSS
.ends

* Black-box entry subcircuit for sg13g2_a21o_2 abstract view
.subckt sg13g2_a21o_2 A2 A1 B1 X VDD VSS
.ends

* Black-box entry subcircuit for sg13g2_nand2b_2 abstract view
.subckt sg13g2_nand2b_2 Y B VDD VSS A_N
.ends

* Black-box entry subcircuit for sg13g2_inv_2 abstract view
.subckt sg13g2_inv_2 Y A VDD VSS
.ends

* Black-box entry subcircuit for sg13g2_or2_1 abstract view
.subckt sg13g2_or2_1 VSS VDD X B A
.ends

* Black-box entry subcircuit for sg13g2_nor2b_2 abstract view
.subckt sg13g2_nor2b_2 A B_N Y VDD VSS
.ends

* Black-box entry subcircuit for sg13g2_or3_1 abstract view
.subckt sg13g2_or3_1 A B C X VDD VSS
.ends

* Black-box entry subcircuit for sg13g2_nand3b_1 abstract view
.subckt sg13g2_nand3b_1 B C Y VDD VSS A_N
.ends

* Black-box entry subcircuit for sg13g2_inv_8 abstract view
.subckt sg13g2_inv_8 Y A VDD VSS
.ends

.subckt heichips25_fazyrv_exotiny VGND VPWR clk ena rst_n ui_in[0] ui_in[1] ui_in[2]
+ ui_in[3] ui_in[4] ui_in[5] ui_in[6] ui_in[7] uio_in[0] uio_in[1] uio_in[2] uio_in[3]
+ uio_in[4] uio_in[5] uio_in[6] uio_in[7] uio_oe[0] uio_oe[1] uio_oe[2] uio_oe[3]
+ uio_oe[4] uio_oe[5] uio_oe[6] uio_oe[7] uio_out[0] uio_out[1] uio_out[2] uio_out[3]
+ uio_out[4] uio_out[5] uio_out[6] uio_out[7] uo_out[0] uo_out[1] uo_out[2] uo_out[3]
+ uo_out[4] uo_out[5] uo_out[6] uo_out[7]
X_05903_ i_exotiny.i_fazyrv_top.genblk2.i_fazyrv_rf_lut.genblk1\[16\].i_reg.reg_r\[8\]
+ net2931 net975 _00120_ VPWR VGND sg13g2_mux2_1
XFILLER_95_884 VPWR VGND sg13g2_decap_8
X_06883_ net1128 _02888_ _02889_ _02890_ VPWR VGND sg13g2_nor3_1
XFILLER_27_406 VPWR VGND sg13g2_fill_2
X_05834_ net2891 net2666 net1054 _00106_ VPWR VGND sg13g2_mux2_1
X_08622_ net1774 VGND VPWR _00694_ i_exotiny._1618_\[2\] clknet_leaf_29_clk_regs sg13g2_dfrbpq_2
X_05765_ _02394_ i_exotiny._2034_\[2\] net1127 VPWR VGND sg13g2_nand2_1
XFILLER_70_718 VPWR VGND sg13g2_fill_2
X_08553_ net702 VGND VPWR _00627_ i_exotiny._0077_\[4\] clknet_leaf_160_clk_regs sg13g2_dfrbpq_1
X_08484_ net196 VGND VPWR _00558_ i_exotiny.i_fazyrv_top.genblk2.i_fazyrv_rf_lut.genblk1\[7\].i_reg.reg_r\[4\]
+ clknet_leaf_109_clk_regs sg13g2_dfrbpq_1
X_07504_ net3318 net3706 net902 _01087_ VPWR VGND sg13g2_mux2_1
X_04716_ net14 _01473_ _01474_ VPWR VGND sg13g2_nor2_1
X_05696_ net1117 i_exotiny._1924_\[24\] _02343_ VPWR VGND sg13g2_nor2b_1
X_07435_ _03079_ net1148 _03044_ net1209 i_exotiny._1160_\[20\] VPWR VGND sg13g2_a22oi_1
X_04647_ VPWR _01409_ net1935 VGND sg13g2_inv_1
X_08522__158 VPWR VGND net158 sg13g2_tiehi
X_07366_ _03025_ _02992_ _02999_ VPWR VGND sg13g2_nand2_2
X_07297_ net3036 net3059 net909 _01014_ VPWR VGND sg13g2_mux2_1
X_09105_ net1297 VGND VPWR _01160_ i_exotiny.i_fazyrv_top.genblk2.i_fazyrv_rf_lut.genblk1\[20\].i_reg.reg_r\[25\]
+ clknet_leaf_143_clk_regs sg13g2_dfrbpq_1
X_06317_ i_exotiny.i_fazyrv_top.genblk2.i_fazyrv_rf_lut.genblk1\[11\].i_reg.reg_r\[15\]
+ net2826 net1033 _00454_ VPWR VGND sg13g2_mux2_1
X_06248_ net2180 i_exotiny.i_fazyrv_top.genblk2.i_fazyrv_rf_lut.genblk1\[27\].i_reg.reg_r\[18\]
+ net1038 _00397_ VPWR VGND sg13g2_mux2_1
X_09036_ net1366 VGND VPWR _01094_ i_exotiny._0315_\[24\] clknet_leaf_2_clk_regs sg13g2_dfrbpq_1
XFILLER_105_923 VPWR VGND sg13g2_decap_8
XFILLER_104_411 VPWR VGND sg13g2_decap_8
Xhold340 _00316_ VPWR VGND net2167 sg13g2_dlygate4sd3_1
X_06179_ net2591 net3174 net950 _00341_ VPWR VGND sg13g2_mux2_1
Xhold351 i_exotiny.i_fazyrv_top.genblk2.i_fazyrv_rf_lut.genblk1\[2\].i_reg.reg_r\[31\]
+ VPWR VGND net2178 sg13g2_dlygate4sd3_1
Xhold362 _01340_ VPWR VGND net2189 sg13g2_dlygate4sd3_1
Xhold395 i_exotiny.i_fazyrv_top.genblk2.i_fazyrv_rf_lut.genblk1\[14\].i_reg.reg_r\[17\]
+ VPWR VGND net2222 sg13g2_dlygate4sd3_1
Xhold373 i_exotiny.i_fazyrv_top.genblk2.i_fazyrv_rf_lut.genblk1\[27\].i_reg.reg_r\[24\]
+ VPWR VGND net2200 sg13g2_dlygate4sd3_1
Xhold384 i_exotiny.i_fazyrv_top.genblk2.i_fazyrv_rf_lut.genblk1\[18\].i_reg.reg_r\[17\]
+ VPWR VGND net2211 sg13g2_dlygate4sd3_1
XFILLER_104_488 VPWR VGND sg13g2_decap_8
X_08097__597 VPWR VGND net597 sg13g2_tiehi
XFILLER_58_542 VPWR VGND sg13g2_fill_1
Xfanout875 _02472_ net875 VPWR VGND sg13g2_buf_8
Xhold1040 i_exotiny.i_fazyrv_top.genblk2.i_fazyrv_rf_lut.genblk1\[16\].i_reg.reg_r\[6\]
+ VPWR VGND net2867 sg13g2_dlygate4sd3_1
Xhold1051 i_exotiny.i_fazyrv_top.genblk2.i_fazyrv_rf_lut.genblk1\[6\].i_reg.reg_r\[12\]
+ VPWR VGND net2878 sg13g2_dlygate4sd3_1
Xfanout886 net890 net886 VPWR VGND sg13g2_buf_8
XFILLER_58_564 VPWR VGND sg13g2_fill_2
XFILLER_58_553 VPWR VGND sg13g2_fill_1
Xfanout897 net900 net897 VPWR VGND sg13g2_buf_8
Xhold1073 i_exotiny.i_fazyrv_top.genblk2.i_fazyrv_rf_lut.genblk1\[22\].i_reg.reg_r\[9\]
+ VPWR VGND net2900 sg13g2_dlygate4sd3_1
Xhold1062 i_exotiny.i_fazyrv_top.genblk2.i_fazyrv_rf_lut.genblk1\[6\].i_reg.reg_r\[5\]
+ VPWR VGND net2889 sg13g2_dlygate4sd3_1
Xhold1084 _01326_ VPWR VGND net2911 sg13g2_dlygate4sd3_1
XFILLER_93_69 VPWR VGND sg13g2_fill_1
Xhold1095 i_exotiny.i_fazyrv_top.genblk2.i_fazyrv_rf_lut.genblk1\[19\].i_reg.reg_r\[18\]
+ VPWR VGND net2922 sg13g2_dlygate4sd3_1
XFILLER_42_95 VPWR VGND sg13g2_fill_2
Xclkbuf_leaf_157_clk_regs clknet_5_18__leaf_clk_regs clknet_leaf_157_clk_regs VPWR
+ VGND sg13g2_buf_8
XFILLER_5_365 VPWR VGND sg13g2_fill_2
XFILLER_6_899 VPWR VGND sg13g2_decap_8
XFILLER_97_1003 VPWR VGND sg13g2_decap_8
XFILLER_36_225 VPWR VGND sg13g2_fill_2
XFILLER_51_217 VPWR VGND sg13g2_fill_1
X_05550_ _02230_ VPWR i_exotiny._1611_\[27\] VGND _02219_ _02234_ sg13g2_o21ai_1
X_05481_ net1872 net1070 i_exotiny._1611_\[6\] VPWR VGND sg13g2_and2_1
X_08952__1030 VPWR VGND net1450 sg13g2_tiehi
X_07220_ _02971_ net1937 net1087 VPWR VGND sg13g2_nand2_1
X_07151_ i_exotiny.i_fazyrv_top.genblk2.i_fazyrv_rf_lut.genblk1\[31\].i_reg.reg_r\[12\]
+ net2652 net1012 _00899_ VPWR VGND sg13g2_mux2_1
XFILLER_66_0 VPWR VGND sg13g2_fill_1
X_06102_ net2933 net888 _02519_ _02521_ VPWR VGND sg13g2_mux2_1
X_07082_ i_exotiny.i_fazyrv_top.genblk2.i_fazyrv_rf_lut.genblk1\[12\].i_reg.reg_r\[10\]
+ net3364 net916 _00837_ VPWR VGND sg13g2_mux2_1
X_06033_ net3485 i_exotiny._0025_\[1\] net963 _00218_ VPWR VGND sg13g2_mux2_1
XFILLER_102_937 VPWR VGND sg13g2_decap_8
XFILLER_99_486 VPWR VGND sg13g2_decap_8
XFILLER_101_436 VPWR VGND sg13g2_decap_8
X_07984_ net125 VGND VPWR net3506 i_exotiny._0369_\[23\] clknet_leaf_165_clk_regs
+ sg13g2_dfrbpq_2
X_06935_ i_exotiny.i_fazyrv_top.genblk2.i_fazyrv_rf_lut.genblk1\[25\].i_reg.reg_r\[15\]
+ net3041 net927 _00714_ VPWR VGND sg13g2_mux2_1
X_06866_ VGND VPWR i_exotiny._1619_\[3\] net1134 _02876_ _02875_ sg13g2_a21oi_1
X_05817_ net2750 net2321 net1056 _00089_ VPWR VGND sg13g2_mux2_1
X_08605_ net1791 VGND VPWR _00677_ i_exotiny._1614_\[1\] clknet_leaf_24_clk_regs sg13g2_dfrbpq_2
X_06797_ _02817_ VPWR _02818_ VGND i_exotiny._0369_\[16\] net1191 sg13g2_o21ai_1
X_08168__510 VPWR VGND net510 sg13g2_tiehi
X_05748_ net3606 _01584_ _02383_ VPWR VGND sg13g2_and2_1
X_08536_ net144 VGND VPWR net2618 i_exotiny.i_fazyrv_top.genblk2.i_fazyrv_rf_lut.genblk1\[9\].i_reg.reg_r\[24\]
+ clknet_leaf_176_clk_regs sg13g2_dfrbpq_1
X_05679_ net1916 net1062 _02330_ VPWR VGND sg13g2_nor2_1
XFILLER_24_987 VPWR VGND sg13g2_fill_1
X_08467_ net213 VGND VPWR _00541_ i_exotiny.i_fazyrv_top.genblk2.i_fazyrv_rf_lut.genblk1\[5\].i_reg.reg_r\[19\]
+ clknet_leaf_158_clk_regs sg13g2_dfrbpq_1
X_08398_ net538 VGND VPWR net3619 i_exotiny.i_wb_spi.cnt_presc_r\[4\] clknet_leaf_32_clk_regs
+ sg13g2_dfrbpq_1
X_07418_ net1082 _03064_ _03065_ _03066_ VPWR VGND sg13g2_nor3_1
X_08598__1378 VPWR VGND net1798 sg13g2_tiehi
XFILLER_7_619 VPWR VGND sg13g2_fill_2
X_08772__1216 VPWR VGND net1636 sg13g2_tiehi
X_07349_ net3771 VPWR _01034_ VGND net1079 _03010_ sg13g2_o21ai_1
XFILLER_6_129 VPWR VGND sg13g2_fill_1
XFILLER_105_720 VPWR VGND sg13g2_decap_8
X_09019_ net1383 VGND VPWR net3693 i_exotiny._0315_\[7\] clknet_leaf_13_clk_regs sg13g2_dfrbpq_2
Xhold170 _01042_ VPWR VGND net1997 sg13g2_dlygate4sd3_1
XFILLER_5_4 VPWR VGND sg13g2_decap_8
XFILLER_3_858 VPWR VGND sg13g2_decap_8
XFILLER_2_357 VPWR VGND sg13g2_fill_2
XFILLER_105_797 VPWR VGND sg13g2_decap_8
Xhold181 i_exotiny._0314_\[25\] VPWR VGND net2008 sg13g2_dlygate4sd3_1
Xhold192 _00236_ VPWR VGND net2019 sg13g2_dlygate4sd3_1
XFILLER_104_285 VPWR VGND sg13g2_decap_8
XFILLER_92_128 VPWR VGND sg13g2_fill_2
XFILLER_37_84 VPWR VGND sg13g2_fill_1
XFILLER_46_567 VPWR VGND sg13g2_fill_2
XFILLER_73_375 VPWR VGND sg13g2_fill_1
XFILLER_105_1007 VPWR VGND sg13g2_decap_8
X_08505__175 VPWR VGND net175 sg13g2_tiehi
XFILLER_14_475 VPWR VGND sg13g2_fill_2
XFILLER_30_968 VPWR VGND sg13g2_fill_1
X_08748__1240 VPWR VGND net1660 sg13g2_tiehi
XFILLER_6_685 VPWR VGND sg13g2_fill_2
XFILLER_97_968 VPWR VGND sg13g2_decap_8
XFILLER_96_423 VPWR VGND sg13g2_decap_8
Xhold1809 i_exotiny.i_wb_spi.cnt_hbit_r\[1\] VPWR VGND net3636 sg13g2_dlygate4sd3_1
XFILLER_2_880 VPWR VGND sg13g2_decap_8
X_08512__168 VPWR VGND net168 sg13g2_tiehi
X_04981_ _01706_ i_exotiny._6090_\[0\] i_exotiny._6090_\[2\] i_exotiny._6090_\[1\]
+ i_exotiny._6090_\[3\] net1180 _01713_ VPWR VGND sg13g2_mux4_1
Xclkbuf_leaf_54_clk_regs clknet_5_15__leaf_clk_regs clknet_leaf_54_clk_regs VPWR VGND
+ sg13g2_buf_8
XFILLER_65_832 VPWR VGND sg13g2_fill_2
X_06720_ net1173 VPWR _02753_ VGND net3654 net1187 sg13g2_o21ai_1
XFILLER_37_512 VPWR VGND sg13g2_fill_2
XFILLER_49_394 VPWR VGND sg13g2_fill_1
X_06651_ _02689_ _02437_ _02688_ _02692_ VPWR VGND sg13g2_mux2_1
X_05602_ i_exotiny._1956_ _01571_ _02272_ VPWR VGND sg13g2_nor2_1
XFILLER_64_364 VPWR VGND sg13g2_fill_1
XFILLER_52_537 VPWR VGND sg13g2_fill_1
X_06582_ net1199 _02643_ _02644_ _00634_ VPWR VGND sg13g2_nor3_1
X_08321_ net357 VGND VPWR _00402_ i_exotiny.i_fazyrv_top.genblk2.i_fazyrv_rf_lut.genblk1\[27\].i_reg.reg_r\[23\]
+ clknet_leaf_73_clk_regs sg13g2_dfrbpq_1
XFILLER_33_751 VPWR VGND sg13g2_fill_2
X_05533_ net1218 _01520_ _02220_ VPWR VGND sg13g2_and2_1
X_08252_ net425 VGND VPWR net2239 i_exotiny.i_fazyrv_top.genblk2.i_fazyrv_rf_lut.genblk1\[24\].i_reg.reg_r\[19\]
+ clknet_leaf_58_clk_regs sg13g2_dfrbpq_1
X_05464_ _02170_ _02140_ i_exotiny._1618_\[3\] _02135_ i_exotiny._1614_\[3\] VPWR
+ VGND sg13g2_a22oi_1
X_07203_ VGND VPWR _01411_ net1088 _00936_ _02963_ sg13g2_a21oi_1
X_05395_ _02112_ _02110_ _02111_ VPWR VGND sg13g2_nand2_1
X_08183_ net494 VGND VPWR net2620 i_exotiny.i_fazyrv_top.genblk2.i_fazyrv_rf_lut.genblk1\[4\].i_reg.reg_r\[14\]
+ clknet_leaf_70_clk_regs sg13g2_dfrbpq_1
X_07134_ net1287 net1843 _00884_ VPWR VGND sg13g2_and2_1
XFILLER_106_517 VPWR VGND sg13g2_decap_8
X_07065_ _02937_ net2806 net1014 _00824_ VPWR VGND sg13g2_mux2_1
XFILLER_88_902 VPWR VGND sg13g2_fill_2
X_06016_ _01465_ _01551_ _02126_ _02502_ VPWR VGND sg13g2_nor3_1
XFILLER_102_745 VPWR VGND sg13g2_decap_8
XFILLER_99_283 VPWR VGND sg13g2_decap_8
XFILLER_101_233 VPWR VGND sg13g2_decap_8
XFILLER_88_979 VPWR VGND sg13g2_decap_8
X_07967_ net1178 VGND VPWR net3710 i_exotiny.i_wdg_top.o_wb_dat\[8\] clknet_leaf_48_clk_regs
+ sg13g2_dfrbpq_1
X_06918_ _02485_ _02532_ _02916_ VPWR VGND sg13g2_nor2_2
X_07898_ net44 VGND VPWR net1 i_exotiny.i_rstctl.sys_res_n clknet_leaf_38_clk_regs
+ sg13g2_dfrbpq_1
XFILLER_55_342 VPWR VGND sg13g2_decap_4
X_08826__1162 VPWR VGND net1582 sg13g2_tiehi
Xclkbuf_5_14__f_clk_regs clknet_4_7_0_clk_regs clknet_5_14__leaf_clk_regs VPWR VGND
+ sg13g2_buf_8
X_06849_ net3501 net1099 _02862_ VPWR VGND sg13g2_nor2_1
X_08519_ net161 VGND VPWR _00593_ i_exotiny.i_fazyrv_top.genblk2.i_fazyrv_rf_lut.genblk1\[9\].i_reg.reg_r\[7\]
+ clknet_leaf_182_clk_regs sg13g2_dfrbpq_1
XFILLER_99_35 VPWR VGND sg13g2_fill_1
XFILLER_87_1013 VPWR VGND sg13g2_decap_8
XFILLER_3_611 VPWR VGND sg13g2_fill_1
XFILLER_105_550 VPWR VGND sg13g2_decap_8
XFILLER_94_927 VPWR VGND sg13g2_decap_8
XFILLER_19_512 VPWR VGND sg13g2_fill_2
XFILLER_0_35 VPWR VGND sg13g2_decap_8
XFILLER_61_367 VPWR VGND sg13g2_fill_2
Xclkbuf_leaf_172_clk_regs clknet_5_5__leaf_clk_regs clknet_leaf_172_clk_regs VPWR
+ VGND sg13g2_buf_8
Xclkbuf_leaf_101_clk_regs clknet_5_23__leaf_clk_regs clknet_leaf_101_clk_regs VPWR
+ VGND sg13g2_buf_8
XFILLER_14_294 VPWR VGND sg13g2_fill_1
XFILLER_7_961 VPWR VGND sg13g2_decap_8
X_05180_ _01900_ VPWR _01908_ VGND _01904_ _01906_ sg13g2_o21ai_1
Xhold917 _01244_ VPWR VGND net2744 sg13g2_dlygate4sd3_1
X_08258__419 VPWR VGND net419 sg13g2_tiehi
Xhold928 _00200_ VPWR VGND net2755 sg13g2_dlygate4sd3_1
Xhold906 i_exotiny.i_fazyrv_top.genblk2.i_fazyrv_rf_lut.genblk1\[1\].i_reg.reg_r\[26\]
+ VPWR VGND net2733 sg13g2_dlygate4sd3_1
X_08158__520 VPWR VGND net520 sg13g2_tiehi
Xhold939 i_exotiny.i_fazyrv_top.genblk2.i_fazyrv_rf_lut.genblk1\[21\].i_reg.reg_r\[10\]
+ VPWR VGND net2766 sg13g2_dlygate4sd3_1
XFILLER_9_1002 VPWR VGND sg13g2_decap_8
X_08870_ net1532 VGND VPWR _00928_ i_exotiny.i_wb_spi.dat_rx_r\[0\] clknet_leaf_29_clk_regs
+ sg13g2_dfrbpq_1
Xhold1606 _00487_ VPWR VGND net3433 sg13g2_dlygate4sd3_1
X_07821_ net2497 _03221_ net891 _01296_ VPWR VGND sg13g2_mux2_1
Xhold1617 i_exotiny._1611_\[22\] VPWR VGND net3444 sg13g2_dlygate4sd3_1
Xhold1639 i_exotiny._1586_ VPWR VGND net3466 sg13g2_dlygate4sd3_1
Xhold1628 i_exotiny.i_fazyrv_top.genblk2.i_fazyrv_rf_lut.genblk1\[29\].i_reg.reg_r\[28\]
+ VPWR VGND net3455 sg13g2_dlygate4sd3_1
X_07752_ net3224 net3157 net991 _01237_ VPWR VGND sg13g2_mux2_1
X_04964_ _01696_ _01424_ _01436_ VPWR VGND sg13g2_xnor2_1
XFILLER_53_813 VPWR VGND sg13g2_fill_1
X_04895_ net1258 net1260 net1222 _01627_ VGND VPWR _01616_ sg13g2_nor4_2
X_07683_ net3181 net2499 net1001 _01185_ VPWR VGND sg13g2_mux2_1
X_06703_ VPWR VGND _01366_ _02738_ _02719_ _01392_ _00661_ net1068 sg13g2_a221oi_1
X_06634_ net2038 net1159 _02679_ VPWR VGND sg13g2_nor2_1
X_08165__513 VPWR VGND net513 sg13g2_tiehi
X_08304_ net374 VGND VPWR net3088 i_exotiny.i_fazyrv_top.genblk2.i_fazyrv_rf_lut.genblk1\[27\].i_reg.reg_r\[6\]
+ clknet_leaf_72_clk_regs sg13g2_dfrbpq_1
X_06565_ i_exotiny.i_fazyrv_top.i_fazyrv_core.i_fazyrv_pc.genblk3\[1\].i_hadd.a_i
+ net1160 _02633_ VPWR VGND sg13g2_nor2_1
XFILLER_100_58 VPWR VGND sg13g2_fill_2
X_06496_ net2363 net2999 net1023 _00577_ VPWR VGND sg13g2_mux2_1
X_09284_ net53 VGND VPWR _01339_ i_exotiny.i_fazyrv_top.genblk2.i_fazyrv_rf_lut.genblk1\[18\].i_reg.reg_r\[10\]
+ clknet_leaf_170_clk_regs sg13g2_dfrbpq_1
X_05516_ net1277 i_exotiny._0315_\[11\] _02207_ VPWR VGND sg13g2_nor2b_1
X_08235_ net442 VGND VPWR net2167 i_exotiny._0028_\[2\] clknet_leaf_49_clk_regs sg13g2_dfrbpq_2
X_05447_ VGND VPWR i_exotiny._1615_\[1\] _02136_ _02155_ _02137_ sg13g2_a21oi_1
X_05378_ _02100_ _02099_ _02094_ VPWR VGND sg13g2_nand2b_1
X_08166_ net512 VGND VPWR _00247_ i_exotiny.i_fazyrv_top.genblk2.i_fazyrv_rf_lut.genblk1\[21\].i_reg.reg_r\[30\]
+ clknet_leaf_132_clk_regs sg13g2_dfrbpq_1
XFILLER_106_314 VPWR VGND sg13g2_decap_8
X_07117_ net1288 net1846 _00867_ VPWR VGND sg13g2_and2_1
X_08097_ net597 VGND VPWR net2208 i_exotiny._0013_\[2\] clknet_leaf_122_clk_regs sg13g2_dfrbpq_2
X_07048_ net3045 net3194 net1017 _00809_ VPWR VGND sg13g2_mux2_1
XFILLER_88_776 VPWR VGND sg13g2_fill_2
XFILLER_87_253 VPWR VGND sg13g2_fill_2
X_08999_ net1403 VGND VPWR net3599 i_exotiny._1160_\[20\] clknet_leaf_18_clk_regs
+ sg13g2_dfrbpq_1
XFILLER_47_117 VPWR VGND sg13g2_fill_2
XFILLER_71_621 VPWR VGND sg13g2_fill_1
X_07988__129 VPWR VGND net129 sg13g2_tiehi
XFILLER_43_356 VPWR VGND sg13g2_fill_2
XFILLER_43_367 VPWR VGND sg13g2_fill_1
X_08502__178 VPWR VGND net178 sg13g2_tiehi
XFILLER_11_286 VPWR VGND sg13g2_fill_2
XFILLER_7_246 VPWR VGND sg13g2_fill_1
XFILLER_4_953 VPWR VGND sg13g2_decap_8
XFILLER_106_881 VPWR VGND sg13g2_decap_8
XFILLER_79_776 VPWR VGND sg13g2_fill_1
Xfanout1231 net1232 net1231 VPWR VGND sg13g2_buf_8
Xfanout1220 net1221 net1220 VPWR VGND sg13g2_buf_8
X_08698__1290 VPWR VGND net1710 sg13g2_tiehi
Xfanout1264 net3815 net1264 VPWR VGND sg13g2_buf_8
Xfanout1253 net1254 net1253 VPWR VGND sg13g2_buf_8
Xfanout1242 i_exotiny._0571_ net1242 VPWR VGND sg13g2_buf_8
Xfanout1286 net1287 net1286 VPWR VGND sg13g2_buf_2
Xfanout1275 net1278 net1275 VPWR VGND sg13g2_buf_8
XFILLER_93_289 VPWR VGND sg13g2_decap_8
XFILLER_75_81 VPWR VGND sg13g2_fill_1
XFILLER_53_109 VPWR VGND sg13g2_fill_2
XFILLER_35_813 VPWR VGND sg13g2_fill_2
X_04680_ _01441_ net1266 _01440_ VPWR VGND sg13g2_nand2_1
X_08593__1383 VPWR VGND net1803 sg13g2_tiehi
XFILLER_90_996 VPWR VGND sg13g2_decap_8
X_06350_ i_exotiny.i_fazyrv_top.genblk2.i_fazyrv_rf_lut.genblk1\[30\].i_reg.reg_r\[9\]
+ net3261 net1028 _00480_ VPWR VGND sg13g2_mux2_1
X_06281_ net2797 net2832 net940 _00424_ VPWR VGND sg13g2_mux2_1
X_05301_ _02027_ _01654_ i_exotiny._0020_\[0\] _01618_ i_exotiny._0031_\[0\] VPWR
+ VGND sg13g2_a22oi_1
X_08020_ net674 VGND VPWR net2544 i_exotiny.i_fazyrv_top.genblk2.i_fazyrv_rf_lut.genblk1\[15\].i_reg.reg_r\[21\]
+ clknet_leaf_67_clk_regs sg13g2_dfrbpq_1
X_05232_ _01960_ _01624_ i_exotiny._0040_\[1\] _01615_ i_exotiny._0021_\[1\] VPWR
+ VGND sg13g2_a22oi_1
Xhold703 i_exotiny.i_fazyrv_top.genblk2.i_fazyrv_rf_lut.genblk1\[7\].i_reg.reg_r\[10\]
+ VPWR VGND net2530 sg13g2_dlygate4sd3_1
Xhold725 i_exotiny.i_fazyrv_top.genblk2.i_fazyrv_rf_lut.genblk1\[16\].i_reg.reg_r\[9\]
+ VPWR VGND net2552 sg13g2_dlygate4sd3_1
Xhold714 i_exotiny.i_fazyrv_top.genblk2.i_fazyrv_rf_lut.genblk1\[9\].i_reg.reg_r\[9\]
+ VPWR VGND net2541 sg13g2_dlygate4sd3_1
Xhold736 i_exotiny.i_fazyrv_top.genblk2.i_fazyrv_rf_lut.genblk1\[21\].i_reg.reg_r\[14\]
+ VPWR VGND net2563 sg13g2_dlygate4sd3_1
X_05163_ _01887_ _01892_ _01893_ VPWR VGND sg13g2_nor2_1
XFILLER_104_818 VPWR VGND sg13g2_decap_8
Xhold747 _00816_ VPWR VGND net2574 sg13g2_dlygate4sd3_1
Xhold758 _00998_ VPWR VGND net2585 sg13g2_dlygate4sd3_1
X_05094_ VGND VPWR _01824_ _01825_ _01820_ _01601_ sg13g2_a21oi_2
Xhold769 _00189_ VPWR VGND net2596 sg13g2_dlygate4sd3_1
XFILLER_103_339 VPWR VGND sg13g2_decap_8
XFILLER_69_220 VPWR VGND sg13g2_fill_1
X_08922_ net1480 VGND VPWR _00980_ i_exotiny.i_fazyrv_top.genblk2.i_fazyrv_rf_lut.genblk1\[6\].i_reg.reg_r\[20\]
+ clknet_leaf_64_clk_regs sg13g2_dfrbpq_1
Xhold1403 _00433_ VPWR VGND net3230 sg13g2_dlygate4sd3_1
Xhold1414 i_exotiny.core_res_en_n VPWR VGND net3241 sg13g2_dlygate4sd3_1
X_08853_ net1553 VGND VPWR _00911_ i_exotiny.i_fazyrv_top.genblk2.i_fazyrv_rf_lut.genblk1\[31\].i_reg.reg_r\[20\]
+ clknet_leaf_185_clk_regs sg13g2_dfrbpq_1
Xhold1425 i_exotiny.i_fazyrv_top.genblk2.i_fazyrv_rf_lut.genblk1\[19\].i_reg.reg_r\[26\]
+ VPWR VGND net3252 sg13g2_dlygate4sd3_1
Xhold1458 i_exotiny.i_fazyrv_top.genblk2.i_fazyrv_rf_lut.genblk1\[27\].i_reg.reg_r\[18\]
+ VPWR VGND net3285 sg13g2_dlygate4sd3_1
Xhold1447 i_exotiny._0016_\[2\] VPWR VGND net3274 sg13g2_dlygate4sd3_1
X_05996_ i_exotiny.i_fazyrv_top.genblk2.i_fazyrv_rf_lut.genblk1\[10\].i_reg.reg_r\[22\]
+ net3264 net1048 _00198_ VPWR VGND sg13g2_mux2_1
Xhold1436 i_exotiny.i_fazyrv_top.genblk2.i_fazyrv_rf_lut.genblk1\[11\].i_reg.reg_r\[7\]
+ VPWR VGND net3263 sg13g2_dlygate4sd3_1
X_07804_ net3218 net2862 net892 _01283_ VPWR VGND sg13g2_mux2_1
X_08784_ net1624 VGND VPWR net3331 i_exotiny.i_fazyrv_top.genblk2.i_fazyrv_rf_lut.genblk1\[12\].i_reg.reg_r\[15\]
+ clknet_leaf_164_clk_regs sg13g2_dfrbpq_1
Xhold1469 i_exotiny.i_fazyrv_top.genblk2.i_fazyrv_rf_lut.genblk1\[10\].i_reg.reg_r\[18\]
+ VPWR VGND net3296 sg13g2_dlygate4sd3_1
X_07735_ net2613 net876 _03199_ _03203_ VPWR VGND sg13g2_mux2_1
X_04947_ VGND VPWR net1245 net1224 _01679_ net1248 sg13g2_a21oi_1
X_09201__780 VPWR VGND net780 sg13g2_tiehi
XFILLER_66_993 VPWR VGND sg13g2_fill_2
XFILLER_53_654 VPWR VGND sg13g2_fill_2
X_07666_ net3319 net2535 net999 _01168_ VPWR VGND sg13g2_mux2_1
XFILLER_25_345 VPWR VGND sg13g2_fill_2
X_04878_ _01610_ net1254 _01421_ VPWR VGND sg13g2_nand2_1
X_07597_ VGND VPWR i_exotiny.i_wdg_top.clk_div_inst.cnt\[9\] _03166_ _03169_ net1877
+ sg13g2_a21oi_1
X_06617_ net3610 net1155 _02668_ VPWR VGND sg13g2_nor2_1
X_06548_ i_exotiny._0369_\[8\] net1213 _02626_ VPWR VGND sg13g2_and2_1
X_09267_ net93 VGND VPWR _01322_ i_exotiny.i_fazyrv_top.genblk2.i_fazyrv_rf_lut.genblk1\[19\].i_reg.reg_r\[25\]
+ clknet_leaf_127_clk_regs sg13g2_dfrbpq_1
X_06479_ net2530 i_exotiny.i_fazyrv_top.genblk2.i_fazyrv_rf_lut.genblk1\[7\].i_reg.reg_r\[6\]
+ net1027 _00560_ VPWR VGND sg13g2_mux2_1
X_08218_ net459 VGND VPWR _00299_ i_exotiny.i_fazyrv_top.genblk2.i_fazyrv_rf_lut.genblk1\[3\].i_reg.reg_r\[17\]
+ clknet_leaf_153_clk_regs sg13g2_dfrbpq_1
X_09198_ net783 VGND VPWR net2838 i_exotiny.i_fazyrv_top.genblk2.i_fazyrv_rf_lut.genblk1\[22\].i_reg.reg_r\[20\]
+ clknet_leaf_77_clk_regs sg13g2_dfrbpq_1
XFILLER_106_111 VPWR VGND sg13g2_decap_8
X_08149_ net529 VGND VPWR _00230_ i_exotiny.i_fazyrv_top.genblk2.i_fazyrv_rf_lut.genblk1\[21\].i_reg.reg_r\[13\]
+ clknet_leaf_132_clk_regs sg13g2_dfrbpq_1
XFILLER_1_901 VPWR VGND sg13g2_decap_8
XFILLER_106_188 VPWR VGND sg13g2_decap_8
XFILLER_1_978 VPWR VGND sg13g2_decap_8
XFILLER_103_895 VPWR VGND sg13g2_decap_8
XFILLER_102_350 VPWR VGND sg13g2_decap_8
Xhold41 i_exotiny.i_wb_spi.state_r\[19\] VPWR VGND net1868 sg13g2_dlygate4sd3_1
Xhold30 i_exotiny.i_wb_spi.state_r\[7\] VPWR VGND net1857 sg13g2_dlygate4sd3_1
Xhold63 i_exotiny.i_wdg_top.clk_div_inst.cnt\[12\] VPWR VGND net1890 sg13g2_dlygate4sd3_1
Xhold52 _01125_ VPWR VGND net1879 sg13g2_dlygate4sd3_1
Xhold74 i_exotiny._1924_\[18\] VPWR VGND net1901 sg13g2_dlygate4sd3_1
Xhold1970 _00071_ VPWR VGND net3797 sg13g2_dlygate4sd3_1
Xhold1981 i_exotiny._1612_\[0\] VPWR VGND net3808 sg13g2_dlygate4sd3_1
Xhold96 _00037_ VPWR VGND net1923 sg13g2_dlygate4sd3_1
XFILLER_63_418 VPWR VGND sg13g2_fill_1
XFILLER_28_150 VPWR VGND sg13g2_fill_1
Xhold85 _01064_ VPWR VGND net1912 sg13g2_dlygate4sd3_1
Xhold1992 i_exotiny._1306_ VPWR VGND net3819 sg13g2_dlygate4sd3_1
X_08248__429 VPWR VGND net429 sg13g2_tiehi
X_08148__530 VPWR VGND net530 sg13g2_tiehi
XFILLER_8_544 VPWR VGND sg13g2_fill_1
XFILLER_99_849 VPWR VGND sg13g2_decap_8
XFILLER_98_348 VPWR VGND sg13g2_decap_8
X_08785__1203 VPWR VGND net1623 sg13g2_tiehi
X_08155__523 VPWR VGND net523 sg13g2_tiehi
Xfanout1072 _01581_ net1072 VPWR VGND sg13g2_buf_8
Xfanout1061 net1067 net1061 VPWR VGND sg13g2_buf_8
Xfanout1050 net1052 net1050 VPWR VGND sg13g2_buf_8
X_05850_ _02425_ net1245 _02439_ VPWR VGND sg13g2_nor2b_1
XFILLER_39_448 VPWR VGND sg13g2_fill_2
Xfanout1083 net1084 net1083 VPWR VGND sg13g2_buf_1
Xfanout1094 _02717_ net1094 VPWR VGND sg13g2_buf_8
X_04801_ _01548_ net1270 net1181 VPWR VGND sg13g2_nand2_1
X_05781_ _02405_ net1126 _01374_ net1145 net3714 VPWR VGND sg13g2_a22oi_1
X_07520_ VGND VPWR _01500_ _02453_ _03118_ _03117_ sg13g2_a21oi_1
X_04732_ net1231 net3713 net1230 _01488_ VPWR VGND sg13g2_nand3_1
XFILLER_50_624 VPWR VGND sg13g2_decap_8
X_07451_ _03090_ net1148 _03026_ net1207 net3360 VPWR VGND sg13g2_a22oi_1
X_04663_ _01420_ _01423_ _01424_ VPWR VGND sg13g2_and2_1
XFILLER_50_668 VPWR VGND sg13g2_fill_2
X_07382_ i_exotiny._0369_\[29\] net1213 _03037_ VPWR VGND sg13g2_and2_1
X_06402_ i_exotiny._0315_\[16\] i_exotiny._0314_\[16\] net1271 _02586_ VPWR VGND sg13g2_mux2_1
XFILLER_22_326 VPWR VGND sg13g2_fill_2
X_06333_ net2971 net2719 net1037 _00470_ VPWR VGND sg13g2_mux2_1
X_08162__516 VPWR VGND net516 sg13g2_tiehi
X_09121_ net861 VGND VPWR net2302 i_exotiny.i_fazyrv_top.genblk2.i_fazyrv_rf_lut.genblk1\[26\].i_reg.reg_r\[9\]
+ clknet_leaf_155_clk_regs sg13g2_dfrbpq_1
X_09052_ net1350 VGND VPWR net2300 i_exotiny.i_rstctl.cnt\[2\] clknet_leaf_39_clk_regs
+ sg13g2_dfrbpq_1
X_06264_ i_exotiny._0031_\[3\] net874 _02546_ _02551_ VPWR VGND sg13g2_mux2_1
X_08003_ net692 VGND VPWR net2086 i_exotiny.i_fazyrv_top.genblk2.i_fazyrv_rf_lut.genblk1\[15\].i_reg.reg_r\[4\]
+ clknet_leaf_67_clk_regs sg13g2_dfrbpq_1
X_06195_ net3495 net3510 net946 _00350_ VPWR VGND sg13g2_mux2_1
Xhold500 i_exotiny.i_fazyrv_top.genblk2.i_fazyrv_rf_lut.genblk1\[18\].i_reg.reg_r\[20\]
+ VPWR VGND net2327 sg13g2_dlygate4sd3_1
X_05215_ _01942_ VPWR _01943_ VGND i_exotiny._0036_\[1\] _01755_ sg13g2_o21ai_1
Xhold511 _00199_ VPWR VGND net2338 sg13g2_dlygate4sd3_1
Xhold522 i_exotiny.i_fazyrv_top.genblk2.i_fazyrv_rf_lut.genblk1\[20\].i_reg.reg_r\[27\]
+ VPWR VGND net2349 sg13g2_dlygate4sd3_1
Xhold544 i_exotiny.i_fazyrv_top.genblk2.i_fazyrv_rf_lut.genblk1\[18\].i_reg.reg_r\[5\]
+ VPWR VGND net2371 sg13g2_dlygate4sd3_1
Xhold533 _00830_ VPWR VGND net2360 sg13g2_dlygate4sd3_1
X_05146_ _01876_ _01654_ i_exotiny._0020_\[2\] _01627_ i_exotiny._0028_\[2\] VPWR
+ VGND sg13g2_a22oi_1
Xhold566 i_exotiny.i_fazyrv_top.genblk2.i_fazyrv_rf_lut.genblk1\[14\].i_reg.reg_r\[16\]
+ VPWR VGND net2393 sg13g2_dlygate4sd3_1
Xhold577 i_exotiny.i_fazyrv_top.genblk2.i_fazyrv_rf_lut.genblk1\[22\].i_reg.reg_r\[12\]
+ VPWR VGND net2404 sg13g2_dlygate4sd3_1
Xhold588 i_exotiny.i_fazyrv_top.genblk2.i_fazyrv_rf_lut.genblk1\[27\].i_reg.reg_r\[11\]
+ VPWR VGND net2415 sg13g2_dlygate4sd3_1
Xhold555 _00535_ VPWR VGND net2382 sg13g2_dlygate4sd3_1
XFILLER_106_24 VPWR VGND sg13g2_decap_8
XFILLER_103_136 VPWR VGND sg13g2_decap_8
XFILLER_98_860 VPWR VGND sg13g2_decap_8
Xhold599 i_exotiny.i_fazyrv_top.genblk2.i_fazyrv_rf_lut.genblk1\[11\].i_reg.reg_r\[8\]
+ VPWR VGND net2426 sg13g2_dlygate4sd3_1
X_05077_ _01809_ _01779_ i_exotiny._0020_\[3\] _01766_ i_exotiny._0030_\[3\] VPWR
+ VGND sg13g2_a22oi_1
Xclkbuf_leaf_9_clk_regs clknet_5_8__leaf_clk_regs clknet_leaf_9_clk_regs VPWR VGND
+ sg13g2_buf_8
Xhold1200 _00413_ VPWR VGND net3027 sg13g2_dlygate4sd3_1
X_08905_ net1497 VGND VPWR _00963_ i_exotiny._0040_\[3\] clknet_leaf_113_clk_regs
+ sg13g2_dfrbpq_2
XFILLER_100_854 VPWR VGND sg13g2_decap_8
Xhold1222 i_exotiny._0040_\[3\] VPWR VGND net3049 sg13g2_dlygate4sd3_1
X_08836_ net1572 VGND VPWR net2080 i_exotiny._0036_\[3\] clknet_leaf_181_clk_regs
+ sg13g2_dfrbpq_2
Xhold1211 i_exotiny.i_fazyrv_top.genblk2.i_fazyrv_rf_lut.genblk1\[3\].i_reg.reg_r\[17\]
+ VPWR VGND net3038 sg13g2_dlygate4sd3_1
Xhold1233 i_exotiny.i_fazyrv_top.genblk2.i_fazyrv_rf_lut.genblk1\[21\].i_reg.reg_r\[15\]
+ VPWR VGND net3060 sg13g2_dlygate4sd3_1